LTspice 24.0.12 for Windows
Circuit: * C:\Users\Marcelo\Documents\LTspice\Flip-Flop\Draft2.asc
Start Time: Mon Jun 10 22:15:36 2024
solver = Normal
Maximum thread count: 4
tnom = 27
temp = 27
method = modified trap
WARNING: Node X1:N010 is floating.
WARNING: Node X1:N002 is floating.
WARNING: Node X1:N011 is floating.
WARNING: Node X1:N003 is floating.
WARNING: Node X1:N004 is floating.
WARNING: Node X1:N008 is floating.
WARNING: Node X1:N009 is floating.
WARNING: Node X1:N005 is floating.

Instance "m:x1:1": Length shorter than recommended for a level 1 MOSFET.
Instance "m:x1:1": Width narrower than recommended for a level 1 MOSFET.
Instance "m:x1:3": Length shorter than recommended for a level 1 MOSFET.
Instance "m:x1:3": Width narrower than recommended for a level 1 MOSFET.
Instance "m:x1:5": Length shorter than recommended for a level 1 MOSFET.
Instance "m:x1:5": Width narrower than recommended for a level 1 MOSFET.
Instance "m:x1:6": Length shorter than recommended for a level 1 MOSFET.
Instance "m:x1:6": Width narrower than recommended for a level 1 MOSFET.
Instance "m:x1:7": Length shorter than recommended for a level 1 MOSFET.
Instance "m:x1:7": Width narrower than recommended for a level 1 MOSFET.
Instance "m:x1:8": Length shorter than recommended for a level 1 MOSFET.
Instance "m:x1:8": Width narrower than recommended for a level 1 MOSFET.
Instance "m:x1:2": Length shorter than recommended for a level 1 MOSFET.
Instance "m:x1:2": Width narrower than recommended for a level 1 MOSFET.
Instance "m:x1:4": Length shorter than recommended for a level 1 MOSFET.
Instance "m:x1:4": Width narrower than recommended for a level 1 MOSFET.
Direct Newton iteration for .op point succeeded.
Heightened Def Con from 4.00114e-06 to 4.00114e-06
Heightened Def Con from 4.00114e-06 +++++++++++++++++++to 4.00115e-06
Heightened Def Con from 4.00115e-06 ++++++++to 4.00126e-06
Heightened Def Con from 1.00011e-05 +++++++++++++++++++to 1.00011e-05
Heightened Def Con from 1.00011e-05 ++++++++to 1.00013e-05
Heightened Def Con from 1.20011e-05 to 1.20011e-05
Heightened Def Con from 1.20011e-05 ++++++++++++++++++++to 1.20011e-05
Heightened Def Con from 1.20011e-05 +++++++++to 1.20013e-05
Total elapsed time: 0.143 seconds.

