LTspice 24.0.12 for Windows
Circuit: * C:\Users\Marcelo\Documents\LTspice\Flip-Flop\flipflopSimulacao.asc
Start Time: Mon Jun 10 21:37:09 2024
solver = Normal
Maximum thread count: 4
tnom = 27
temp = 27
method = modified trap
WARNING: Node N010 is floating.
WARNING: Node N002 is floating.
WARNING: Node N011 is floating.
WARNING: Node N003 is floating.
WARNING: Node N004 is floating.
WARNING: Node N008 is floating.
WARNING: Node N009 is floating.
WARNING: Node N005 is floating.

Instance "m1": Length shorter than recommended for a level 1 MOSFET.
Instance "m1": Width narrower than recommended for a level 1 MOSFET.
Instance "m3": Length shorter than recommended for a level 1 MOSFET.
Instance "m3": Width narrower than recommended for a level 1 MOSFET.
Instance "m5": Length shorter than recommended for a level 1 MOSFET.
Instance "m5": Width narrower than recommended for a level 1 MOSFET.
Instance "m6": Length shorter than recommended for a level 1 MOSFET.
Instance "m6": Width narrower than recommended for a level 1 MOSFET.
Instance "m7": Length shorter than recommended for a level 1 MOSFET.
Instance "m7": Width narrower than recommended for a level 1 MOSFET.
Instance "m8": Length shorter than recommended for a level 1 MOSFET.
Instance "m8": Width narrower than recommended for a level 1 MOSFET.
Instance "m2": Length shorter than recommended for a level 1 MOSFET.
Instance "m2": Width narrower than recommended for a level 1 MOSFET.
Instance "m4": Length shorter than recommended for a level 1 MOSFET.
Instance "m4": Width narrower than recommended for a level 1 MOSFET.
Direct Newton iteration for .op point succeeded.
Heightened Def Con from 4.00114e-06 to 4.00114e-06
Heightened Def Con from 4.00114e-06 +++++++++++++++++++to 4.00115e-06
Heightened Def Con from 4.00115e-06 ++++++++to 4.00126e-06
Heightened Def Con from 1.00011e-05 +++++++++++++++++++to 1.00011e-05
Heightened Def Con from 1.00011e-05 ++++++++to 1.00013e-05
Heightened Def Con from 1.20011e-05 to 1.20011e-05
Heightened Def Con from 1.20011e-05 ++++++++++++++++++++to 1.20011e-05
Heightened Def Con from 1.20011e-05 +++++++++to 1.20013e-05
Total elapsed time: 0.448 seconds.

