LTspice 24.0.12 for Windows
Circuit: * C:\Users\Marcelo\Documents\LTspice\ee610\Counter\Counter.asc
Start Time: Mon Jun 10 22:34:08 2024
solver = Normal
Maximum thread count: 4
tnom = 27
temp = 27
method = modified trap
WARNING: Node X2:N010 is floating.
WARNING: Node X2:N002 is floating.
WARNING: Node X2:N011 is floating.
WARNING: Node X2:N003 is floating.
WARNING: Node X2:N004 is floating.
WARNING: Node X2:N008 is floating.
WARNING: Node X2:N009 is floating.
WARNING: Node X2:N005 is floating.

Instance "m:x2:1": Length shorter than recommended for a level 1 MOSFET.
Instance "m:x2:1": Width narrower than recommended for a level 1 MOSFET.
Instance "m:x2:3": Length shorter than recommended for a level 1 MOSFET.
Instance "m:x2:3": Width narrower than recommended for a level 1 MOSFET.
Instance "m:x2:5": Length shorter than recommended for a level 1 MOSFET.
Instance "m:x2:5": Width narrower than recommended for a level 1 MOSFET.
Instance "m:x2:6": Length shorter than recommended for a level 1 MOSFET.
Instance "m:x2:6": Width narrower than recommended for a level 1 MOSFET.
Instance "m:x2:7": Length shorter than recommended for a level 1 MOSFET.
Instance "m:x2:7": Width narrower than recommended for a level 1 MOSFET.
Instance "m:x2:8": Length shorter than recommended for a level 1 MOSFET.
Instance "m:x2:8": Width narrower than recommended for a level 1 MOSFET.
Instance "m:x2:2": Length shorter than recommended for a level 1 MOSFET.
Instance "m:x2:2": Width narrower than recommended for a level 1 MOSFET.
Instance "m:x2:4": Length shorter than recommended for a level 1 MOSFET.
Instance "m:x2:4": Width narrower than recommended for a level 1 MOSFET.
Direct Newton iteration for .op point succeeded.
Heightened Def Con from 4.00114e-06 to 4.00114e-06
Heightened Def Con from 4.00114e-06 +++++++++++++++++++to 4.00115e-06
Heightened Def Con from 4.00115e-06 ++++++++to 4.00126e-06
Heightened Def Con from 1.00011e-05 to 1.00011e-05
Heightened Def Con from 1.00011e-05 +++++++++++++++++++to 1.00011e-05
Heightened Def Con from 1.00011e-05 ++++++++to 1.00013e-05
Heightened Def Con from 1.20011e-05 to 1.20011e-05
Heightened Def Con from 1.20011e-05 +++++++++++++++++++to 1.20011e-05
Heightened Def Con from 1.20011e-05 ++++++++to 1.20013e-05
Total elapsed time: 0.395 seconds.

